* NGSPICE file created from opampjulia.ext - technology: sky130A

.subckt sky130_fd_pr__pfet_01v8_VXTF3X VSUBS a_n385_n600# a_1039_n600# a_1097_n697#
+ a_n1631_n600# a_n919_n600# a_n1751_n697# a_683_n600# a_741_n697# a_1217_n600# a_n683_n697#
+ a_n563_n600# a_n1039_n697# a_29_n697# a_1275_n697# a_861_n600# a_n741_n600# a_n861_n697#
+ a_1453_n697# a_1395_n600# a_n1217_n697# a_207_n697# a_n1097_n600# a_149_n600# a_n29_n600#
+ a_n149_n697# a_1631_n697# a_1573_n600# w_n1947_n819# a_n1275_n600# a_327_n600# a_n1395_n697#
+ a_385_n697# a_n327_n697# a_n1809_n600# a_n207_n600# a_919_n697# a_1751_n600# a_n1573_n697#
+ a_n1453_n600# a_505_n600# a_563_n697# a_n505_n697#
X0 a_505_n600# a_385_n697# a_327_n600# w_n1947_n819# sky130_fd_pr__pfet_01v8 w=6e+06u l=600000u
X1 a_149_n600# a_29_n697# a_n29_n600# w_n1947_n819# sky130_fd_pr__pfet_01v8 w=6e+06u l=600000u
X2 a_1751_n600# a_1631_n697# a_1573_n600# w_n1947_n819# sky130_fd_pr__pfet_01v8 w=6e+06u l=600000u
X3 a_1573_n600# a_1453_n697# a_1395_n600# w_n1947_n819# sky130_fd_pr__pfet_01v8 w=6e+06u l=600000u
X4 a_1395_n600# a_1275_n697# a_1217_n600# w_n1947_n819# sky130_fd_pr__pfet_01v8 w=6e+06u l=600000u
X5 a_1217_n600# a_1097_n697# a_1039_n600# w_n1947_n819# sky130_fd_pr__pfet_01v8 w=6e+06u l=600000u
X6 a_n1097_n600# a_n1217_n697# a_n1275_n600# w_n1947_n819# sky130_fd_pr__pfet_01v8 w=6e+06u l=600000u
X7 a_1039_n600# a_919_n697# a_861_n600# w_n1947_n819# sky130_fd_pr__pfet_01v8 w=6e+06u l=600000u
X8 a_n919_n600# a_n1039_n697# a_n1097_n600# w_n1947_n819# sky130_fd_pr__pfet_01v8 w=6e+06u l=600000u
X9 a_n385_n600# a_n505_n697# a_n563_n600# w_n1947_n819# sky130_fd_pr__pfet_01v8 w=6e+06u l=600000u
X10 a_n1631_n600# a_n1751_n697# a_n1809_n600# w_n1947_n819# sky130_fd_pr__pfet_01v8 w=6e+06u l=600000u
X11 a_n207_n600# a_n327_n697# a_n385_n600# w_n1947_n819# sky130_fd_pr__pfet_01v8 w=6e+06u l=600000u
X12 a_n1453_n600# a_n1573_n697# a_n1631_n600# w_n1947_n819# sky130_fd_pr__pfet_01v8 w=6e+06u l=600000u
X13 a_n1275_n600# a_n1395_n697# a_n1453_n600# w_n1947_n819# sky130_fd_pr__pfet_01v8 w=6e+06u l=600000u
X14 a_n29_n600# a_n149_n697# a_n207_n600# w_n1947_n819# sky130_fd_pr__pfet_01v8 w=6e+06u l=600000u
X15 a_n741_n600# a_n861_n697# a_n919_n600# w_n1947_n819# sky130_fd_pr__pfet_01v8 w=6e+06u l=600000u
X16 a_n563_n600# a_n683_n697# a_n741_n600# w_n1947_n819# sky130_fd_pr__pfet_01v8 w=6e+06u l=600000u
X17 a_327_n600# a_207_n697# a_149_n600# w_n1947_n819# sky130_fd_pr__pfet_01v8 w=6e+06u l=600000u
X18 a_861_n600# a_741_n697# a_683_n600# w_n1947_n819# sky130_fd_pr__pfet_01v8 w=6e+06u l=600000u
X19 a_683_n600# a_563_n697# a_505_n600# w_n1947_n819# sky130_fd_pr__pfet_01v8 w=6e+06u l=600000u
.ends

.subckt sky130_fd_pr__nfet_01v8_PGN2UQ VSUBS a_n29_527# a_207_439# a_149_527# a_n505_n815#
+ a_n385_n727# a_327_527# a_505_527# a_n207_527# a_29_n397# a_149_n309# a_n29_n309#
+ a_n149_439# a_n563_n727# a_207_21# a_n327_439# a_n385_109# a_29_n815# a_n505_439#
+ a_385_21# a_n563_109# a_327_n309# a_207_n397# a_n207_n309# a_385_439# a_n149_n397#
+ a_149_n727# a_207_n815# a_n29_n727# a_505_n309# a_n149_21# a_29_21# a_n29_109# a_n149_n815#
+ a_n385_527# a_n563_527# a_149_109# a_385_n397# a_327_109# a_n327_n397# a_n385_n309#
+ a_327_n727# a_n327_21# a_505_109# a_n207_n727# a_n207_109# a_385_n815# a_n327_n815#
+ w_n701_n937# a_29_439# a_n563_n309# a_n505_21# a_n505_n397# a_505_n727#
X0 a_n207_109# a_n327_21# a_n385_109# VSUBS sky130_fd_pr__nfet_01v8 w=1e+06u l=600000u
X1 a_505_109# a_385_21# a_327_109# VSUBS sky130_fd_pr__nfet_01v8 w=1e+06u l=600000u
X2 a_327_n727# a_207_n815# a_149_n727# VSUBS sky130_fd_pr__nfet_01v8 w=1e+06u l=600000u
X3 a_327_109# a_207_21# a_149_109# VSUBS sky130_fd_pr__nfet_01v8 w=1e+06u l=600000u
X4 a_505_n727# a_385_n815# a_327_n727# VSUBS sky130_fd_pr__nfet_01v8 w=1e+06u l=600000u
X5 a_149_n727# a_29_n815# a_n29_n727# VSUBS sky130_fd_pr__nfet_01v8 w=1e+06u l=600000u
X6 a_n207_527# a_n327_439# a_n385_527# VSUBS sky130_fd_pr__nfet_01v8 w=1e+06u l=600000u
X7 a_505_527# a_385_439# a_327_527# VSUBS sky130_fd_pr__nfet_01v8 w=1e+06u l=600000u
X8 a_327_527# a_207_439# a_149_527# VSUBS sky130_fd_pr__nfet_01v8 w=1e+06u l=600000u
X9 a_n385_109# a_n505_21# a_n563_109# VSUBS sky130_fd_pr__nfet_01v8 w=1e+06u l=600000u
X10 a_n385_n309# a_n505_n397# a_n563_n309# VSUBS sky130_fd_pr__nfet_01v8 w=1e+06u l=600000u
X11 a_149_109# a_29_21# a_n29_109# VSUBS sky130_fd_pr__nfet_01v8 w=1e+06u l=600000u
X12 a_n207_n309# a_n327_n397# a_n385_n309# VSUBS sky130_fd_pr__nfet_01v8 w=1e+06u l=600000u
X13 a_n29_109# a_n149_21# a_n207_109# VSUBS sky130_fd_pr__nfet_01v8 w=1e+06u l=600000u
X14 a_n29_n309# a_n149_n397# a_n207_n309# VSUBS sky130_fd_pr__nfet_01v8 w=1e+06u l=600000u
X15 a_327_n309# a_207_n397# a_149_n309# VSUBS sky130_fd_pr__nfet_01v8 w=1e+06u l=600000u
X16 a_n385_527# a_n505_439# a_n563_527# VSUBS sky130_fd_pr__nfet_01v8 w=1e+06u l=600000u
X17 a_n385_n727# a_n505_n815# a_n563_n727# VSUBS sky130_fd_pr__nfet_01v8 w=1e+06u l=600000u
X18 a_n29_527# a_n149_439# a_n207_527# VSUBS sky130_fd_pr__nfet_01v8 w=1e+06u l=600000u
X19 a_149_527# a_29_439# a_n29_527# VSUBS sky130_fd_pr__nfet_01v8 w=1e+06u l=600000u
X20 a_n207_n727# a_n327_n815# a_n385_n727# VSUBS sky130_fd_pr__nfet_01v8 w=1e+06u l=600000u
X21 a_n29_n727# a_n149_n815# a_n207_n727# VSUBS sky130_fd_pr__nfet_01v8 w=1e+06u l=600000u
X22 a_505_n309# a_385_n397# a_327_n309# VSUBS sky130_fd_pr__nfet_01v8 w=1e+06u l=600000u
X23 a_149_n309# a_29_n397# a_n29_n309# VSUBS sky130_fd_pr__nfet_01v8 w=1e+06u l=600000u
.ends

.subckt sky130_fd_pr__pfet_01v8_VXT95W a_n7091_21# a_n1573_n1415# VSUBS a_n5311_21#
+ a_n2107_21# a_n6557_n1415# a_149_n1318# a_n3233_n1318# a_3233_n1415# a_n3945_n1318#
+ a_7327_21# a_2285_118# a_6557_118# a_3945_n1415# a_2641_n1318# a_7625_n1318# a_n385_n1318#
+ a_n6557_21# a_n6259_118# a_1275_21# a_n6081_118# a_n3175_n1415# a_2463_118# a_6735_118#
+ a_n3887_n1415# a_n1987_118# a_5547_n1415# a_n5547_n1318# a_3945_21# a_n6437_118#
+ a_n2165_118# a_385_n1415# a_4243_n1318# a_n683_21# a_3055_21# a_4955_n1318# a_2819_118#
+ a_n2285_21# a_2641_118# a_6913_118# a_n6201_n1415# a_505_n1318# a_n7861_n1318# a_n6913_n1415#
+ a_7861_n1415# a_5725_21# a_n6615_118# a_n2343_118# a_n5489_n1415# a_n2165_n1318#
+ a_n4955_21# a_919_21# a_n1929_n1415# a_n1217_n1415# a_2165_n1415# a_2877_n1415#
+ a_n741_n1318# a_n2877_n1318# a_1573_n1318# a_n7149_n1318# a_7149_n1415# a_n4065_21#
+ a_n29_118# a_6557_n1318# a_n7091_n1415# a_7505_21# a_n2521_118# a_n3531_n1415# a_n6735_21#
+ a_n5903_n1318# a_n683_n1415# a_741_n1415# a_5903_n1415# a_149_118# a_1453_21# a_3887_118#
+ a_4479_n1415# a_n4479_n1318# a_4065_118# a_7981_118# a_3887_n1318# a_3175_n1318#
+ a_n3589_118# a_n6081_n1318# a_2699_21# a_n8039_118# a_n7683_118# a_n5845_n1415#
+ a_n5133_n1415# a_6081_n1415# a_6793_n1415# a_n6793_n1318# a_327_118# a_2521_n1415#
+ a_n2521_n1318# a_n861_21# a_3233_21# a_n29_n1318# a_n7505_n1318# a_7505_n1415# a_n2463_21#
+ a_4243_118# a_1097_n1415# a_6201_n1318# a_n1097_n1318# a_6913_n1318# a_7683_21#
+ a_n3767_118# a_4479_21# a_5903_21# a_n7861_118# a_5489_n1318# a_5013_21# a_505_118#
+ a_1929_n1318# a_1217_n1318# a_n1929_21# a_n2463_n1415# a_n4243_21# a_207_21# a_4421_118#
+ a_n7447_n1415# a_n4123_n1318# a_n1039_21# a_4123_n1415# a_4835_n1415# a_7091_n1318#
+ a_n4835_n1318# a_6259_21# a_n3945_118# a_3531_n1318# a_n4123_118# a_n207_118# a_n327_n1415#
+ a_n5489_21# a_n6913_21# a_n3709_21# a_n6023_21# a_1631_21# a_n4065_n1415# a_n4301_118#
+ a_5489_118# a_n4777_n1415# a_1453_n1415# a_n1453_n1318# a_n7269_21# a_6437_n1415#
+ a_n6437_n1318# a_2877_21# a_5133_n1318# a_5191_21# a_5845_n1318# a_683_n1318# a_3411_21#
+ a_1395_118# a_5667_118# a_385_21# a_n2641_21# a_n7803_n1415# a_n5369_118# a_n1097_118#
+ a_n1395_n1415# a_4657_21# a_7861_21# a_n5191_118# a_n6379_n1415# a_n2107_n1415#
+ a_3055_n1415# a_n3055_n1318# a_n2819_n1415# a_3767_n1415# a_n3767_n1318# a_n8039_n1318#
+ a_n3887_21# a_1573_118# a_5845_118# a_2463_n1318# a_6023_118# a_7447_n1318# a_n4421_21#
+ a_n1217_21# a_n5547_118# a_n1275_118# a_n4421_n1415# a_6437_21# a_1929_118# a_n5667_21#
+ a_1751_118# a_2107_118# a_29_n1415# a_n6201_21# a_6201_118# a_5369_n1415# a_n5369_n1318#
+ a_n5725_118# a_n1453_118# a_1809_n1415# a_4777_n1318# a_4065_n1318# a_n1809_n1318#
+ a_n1751_n1415# a_n7447_21# a_n6735_n1415# a_n6023_n1415# a_327_n1318# a_n7683_n1318#
+ a_7683_n1415# a_3411_n1415# a_n3411_n1318# a_2165_21# a_n1809_118# a_n1631_118#
+ a_n5903_118# a_7091_118# a_7269_118# a_n1039_n1415# a_n563_n1318# a_n1395_21# a_563_21#
+ a_2699_n1415# a_7803_n1318# a_n2699_n1318# a_1395_n1318# a_6379_n1318# a_4835_21#
+ a_2997_118# a_2819_n1318# a_2107_n1318# a_3175_118# a_7447_118# a_n3353_n1415# a_n5013_n1318#
+ a_n3175_21# a_n2699_118# a_5013_n1415# a_5725_n1415# a_n5725_n1318# a_n7149_118#
+ a_n6793_118# a_563_n1415# a_4421_n1318# a_6615_21# a_29_21# a_n5845_21# a_n149_21#
+ a_3353_118# a_7625_118# a_n2877_118# a_n7327_118# a_n6971_118# a_n3055_118# a_n5667_n1415#
+ a_n2343_n1318# a_2343_n1415# a_3709_118# a_1751_n1318# a_n7327_n1318# a_7327_n1415#
+ a_n7625_21# a_3531_118# a_7803_118# a_6735_n1318# a_6023_n1318# a_n7981_n1415# a_n207_n1318#
+ a_2343_21# a_n7505_118# a_n3233_118# a_1039_n1318# a_n919_n1318# a_741_21# a_n1573_21#
+ a_n2997_n1415# a_n2285_n1415# a_n861_n1415# a_6793_21# a_n7269_n1415# a_1809_21#
+ a_3589_21# a_n3709_n1415# a_4657_n1415# a_n4657_n1318# a_4123_21# a_n3411_118# a_4599_118#
+ a_3353_n1318# a_n149_n1415# a_n3353_21# a_207_n1415# a_n5311_n1415# a_919_n1415#
+ a_n6971_n1318# a_683_118# a_6971_n1415# a_5369_21# a_4777_118# a_n4599_21# a_n4599_n1415#
+ a_n1275_n1318# a_n2819_21# a_n327_21# a_1275_n1415# a_1987_n1415# a_n1987_n1318#
+ a_n5133_21# a_n4479_118# a_6259_n1415# a_n6259_n1318# a_n385_118# a_5667_n1318#
+ a_7149_21# a_861_118# a_1039_118# a_4955_118# a_n2641_n1415# a_n7803_21# a_n6379_21#
+ a_5133_118# a_n7625_n1415# w_n8177_n1537# a_1987_21# a_4301_n1415# a_n4301_n1318#
+ a_n4657_118# a_7981_n1318# a_1097_21# a_2521_21# a_n563_118# a_n505_n1415# a_3589_n1415#
+ a_n3589_n1318# a_n1751_21# a_1217_118# a_2997_n1318# a_2285_n1318# a_5311_118# a_7269_n1318#
+ a_3767_21# a_6971_21# a_3709_n1318# a_n5191_n1318# a_6081_21# a_n5013_118# a_n4835_118#
+ a_n919_118# a_n4955_n1415# a_n4243_n1415# a_5191_n1415# a_n2997_21# a_4301_21# a_n741_118#
+ a_1631_n1415# a_n1631_n1318# a_6615_n1415# a_n6615_n1318# a_n3531_21# a_5311_n1318#
+ a_861_n1318# a_5547_21# a_n7981_21# a_6379_118# a_4599_n1318# a_n4777_21# a_n505_21#
X0 a_4243_118# a_4123_21# a_4065_118# w_n8177_n1537# sky130_fd_pr__pfet_01v8 w=6e+06u l=600000u
X1 a_4777_n1318# a_4657_n1415# a_4599_n1318# w_n8177_n1537# sky130_fd_pr__pfet_01v8 w=6e+06u l=600000u
X2 a_n1097_n1318# a_n1217_n1415# a_n1275_n1318# w_n8177_n1537# sky130_fd_pr__pfet_01v8 w=6e+06u l=600000u
X3 a_3353_118# a_3233_21# a_3175_118# w_n8177_n1537# sky130_fd_pr__pfet_01v8 w=6e+06u l=600000u
X4 a_n4301_n1318# a_n4421_n1415# a_n4479_n1318# w_n8177_n1537# sky130_fd_pr__pfet_01v8 w=6e+06u l=600000u
X5 a_2463_118# a_2343_21# a_2285_118# w_n8177_n1537# sky130_fd_pr__pfet_01v8 w=6e+06u l=600000u
X6 a_7981_n1318# a_7861_n1415# a_7803_n1318# w_n8177_n1537# sky130_fd_pr__pfet_01v8 w=6e+06u l=600000u
X7 a_1573_118# a_1453_21# a_1395_118# w_n8177_n1537# sky130_fd_pr__pfet_01v8 w=6e+06u l=600000u
X8 a_4599_n1318# a_4479_n1415# a_4421_n1318# w_n8177_n1537# sky130_fd_pr__pfet_01v8 w=6e+06u l=600000u
X9 a_149_n1318# a_29_n1415# a_n29_n1318# w_n8177_n1537# sky130_fd_pr__pfet_01v8 w=6e+06u l=600000u
X10 a_n919_n1318# a_n1039_n1415# a_n1097_n1318# w_n8177_n1537# sky130_fd_pr__pfet_01v8 w=6e+06u l=600000u
X11 a_n7861_118# a_n7981_21# a_n8039_118# w_n8177_n1537# sky130_fd_pr__pfet_01v8 w=6e+06u l=600000u
X12 a_n2877_n1318# a_n2997_n1415# a_n3055_n1318# w_n8177_n1537# sky130_fd_pr__pfet_01v8 w=6e+06u l=600000u
X13 a_n919_118# a_n1039_21# a_n1097_118# w_n8177_n1537# sky130_fd_pr__pfet_01v8 w=6e+06u l=600000u
X14 a_7803_n1318# a_7683_n1415# a_7625_n1318# w_n8177_n1537# sky130_fd_pr__pfet_01v8 w=6e+06u l=600000u
X15 a_4065_n1318# a_3945_n1415# a_3887_n1318# w_n8177_n1537# sky130_fd_pr__pfet_01v8 w=6e+06u l=600000u
X16 a_n4123_n1318# a_n4243_n1415# a_n4301_n1318# w_n8177_n1537# sky130_fd_pr__pfet_01v8 w=6e+06u l=600000u
X17 a_n741_n1318# a_n861_n1415# a_n919_n1318# w_n8177_n1537# sky130_fd_pr__pfet_01v8 w=6e+06u l=600000u
X18 a_n7683_118# a_n7803_21# a_n7861_118# w_n8177_n1537# sky130_fd_pr__pfet_01v8 w=6e+06u l=600000u
X19 a_n6793_118# a_n6913_21# a_n6971_118# w_n8177_n1537# sky130_fd_pr__pfet_01v8 w=6e+06u l=600000u
X20 a_1217_118# a_1097_21# a_1039_118# w_n8177_n1537# sky130_fd_pr__pfet_01v8 w=6e+06u l=600000u
X21 a_3887_n1318# a_3767_n1415# a_3709_n1318# w_n8177_n1537# sky130_fd_pr__pfet_01v8 w=6e+06u l=600000u
X22 a_n3945_n1318# a_n4065_n1415# a_n4123_n1318# w_n8177_n1537# sky130_fd_pr__pfet_01v8 w=6e+06u l=600000u
X23 a_7981_118# a_7861_21# a_7803_118# w_n8177_n1537# sky130_fd_pr__pfet_01v8 w=6e+06u l=600000u
X24 a_5133_n1318# a_5013_n1415# a_4955_n1318# w_n8177_n1537# sky130_fd_pr__pfet_01v8 w=6e+06u l=600000u
X25 a_n563_n1318# a_n683_n1415# a_n741_n1318# w_n8177_n1537# sky130_fd_pr__pfet_01v8 w=6e+06u l=600000u
X26 a_n3411_n1318# a_n3531_n1415# a_n3589_n1318# w_n8177_n1537# sky130_fd_pr__pfet_01v8 w=6e+06u l=600000u
X27 a_7091_118# a_6971_21# a_6913_118# w_n8177_n1537# sky130_fd_pr__pfet_01v8 w=6e+06u l=600000u
X28 a_7091_n1318# a_6971_n1415# a_6913_n1318# w_n8177_n1537# sky130_fd_pr__pfet_01v8 w=6e+06u l=600000u
X29 a_n563_118# a_n683_21# a_n741_118# w_n8177_n1537# sky130_fd_pr__pfet_01v8 w=6e+06u l=600000u
X30 a_n7327_118# a_n7447_21# a_n7505_118# w_n8177_n1537# sky130_fd_pr__pfet_01v8 w=6e+06u l=600000u
X31 a_6023_118# a_5903_21# a_5845_118# w_n8177_n1537# sky130_fd_pr__pfet_01v8 w=6e+06u l=600000u
X32 a_n7683_n1318# a_n7803_n1415# a_n7861_n1318# w_n8177_n1537# sky130_fd_pr__pfet_01v8 w=6e+06u l=600000u
X33 a_n6437_118# a_n6557_21# a_n6615_118# w_n8177_n1537# sky130_fd_pr__pfet_01v8 w=6e+06u l=600000u
X34 a_n385_118# a_n505_21# a_n563_118# w_n8177_n1537# sky130_fd_pr__pfet_01v8 w=6e+06u l=600000u
X35 a_3709_n1318# a_3589_n1415# a_3531_n1318# w_n8177_n1537# sky130_fd_pr__pfet_01v8 w=6e+06u l=600000u
X36 a_n5547_118# a_n5667_21# a_n5725_118# w_n8177_n1537# sky130_fd_pr__pfet_01v8 w=6e+06u l=600000u
X37 a_n3233_n1318# a_n3353_n1415# a_n3411_n1318# w_n8177_n1537# sky130_fd_pr__pfet_01v8 w=6e+06u l=600000u
X38 a_n4657_118# a_n4777_21# a_n4835_118# w_n8177_n1537# sky130_fd_pr__pfet_01v8 w=6e+06u l=600000u
X39 a_6913_n1318# a_6793_n1415# a_6735_n1318# w_n8177_n1537# sky130_fd_pr__pfet_01v8 w=6e+06u l=600000u
X40 a_n6971_n1318# a_n7091_n1415# a_n7149_n1318# w_n8177_n1537# sky130_fd_pr__pfet_01v8 w=6e+06u l=600000u
X41 a_4421_n1318# a_4301_n1415# a_4243_n1318# w_n8177_n1537# sky130_fd_pr__pfet_01v8 w=6e+06u l=600000u
X42 a_n3767_118# a_n3887_21# a_n3945_118# w_n8177_n1537# sky130_fd_pr__pfet_01v8 w=6e+06u l=600000u
X43 a_n2877_118# a_n2997_21# a_n3055_118# w_n8177_n1537# sky130_fd_pr__pfet_01v8 w=6e+06u l=600000u
X44 a_683_118# a_563_21# a_505_118# w_n8177_n1537# sky130_fd_pr__pfet_01v8 w=6e+06u l=600000u
X45 a_n7505_n1318# a_n7625_n1415# a_n7683_n1318# w_n8177_n1537# sky130_fd_pr__pfet_01v8 w=6e+06u l=600000u
X46 a_7447_118# a_7327_21# a_7269_118# w_n8177_n1537# sky130_fd_pr__pfet_01v8 w=6e+06u l=600000u
X47 a_n3589_118# a_n3709_21# a_n3767_118# w_n8177_n1537# sky130_fd_pr__pfet_01v8 w=6e+06u l=600000u
X48 a_n2699_118# a_n2819_21# a_n2877_118# w_n8177_n1537# sky130_fd_pr__pfet_01v8 w=6e+06u l=600000u
X49 a_149_118# a_29_21# a_n29_118# w_n8177_n1537# sky130_fd_pr__pfet_01v8 w=6e+06u l=600000u
X50 a_6557_118# a_6437_21# a_6379_118# w_n8177_n1537# sky130_fd_pr__pfet_01v8 w=6e+06u l=600000u
X51 a_2997_n1318# a_2877_n1415# a_2819_n1318# w_n8177_n1537# sky130_fd_pr__pfet_01v8 w=6e+06u l=600000u
X52 a_n3055_n1318# a_n3175_n1415# a_n3233_n1318# w_n8177_n1537# sky130_fd_pr__pfet_01v8 w=6e+06u l=600000u
X53 a_n1809_118# a_n1929_21# a_n1987_118# w_n8177_n1537# sky130_fd_pr__pfet_01v8 w=6e+06u l=600000u
X54 a_n29_118# a_n149_21# a_n207_118# w_n8177_n1537# sky130_fd_pr__pfet_01v8 w=6e+06u l=600000u
X55 a_5667_118# a_5547_21# a_5489_118# w_n8177_n1537# sky130_fd_pr__pfet_01v8 w=6e+06u l=600000u
X56 a_4243_n1318# a_4123_n1415# a_4065_n1318# w_n8177_n1537# sky130_fd_pr__pfet_01v8 w=6e+06u l=600000u
X57 a_4777_118# a_4657_21# a_4599_118# w_n8177_n1537# sky130_fd_pr__pfet_01v8 w=6e+06u l=600000u
X58 a_n2521_n1318# a_n2641_n1415# a_n2699_n1318# w_n8177_n1537# sky130_fd_pr__pfet_01v8 w=6e+06u l=600000u
X59 a_327_n1318# a_207_n1415# a_149_n1318# w_n8177_n1537# sky130_fd_pr__pfet_01v8 w=6e+06u l=600000u
X60 a_3887_118# a_3767_21# a_3709_118# w_n8177_n1537# sky130_fd_pr__pfet_01v8 w=6e+06u l=600000u
X61 a_n3589_n1318# a_n3709_n1415# a_n3767_n1318# w_n8177_n1537# sky130_fd_pr__pfet_01v8 w=6e+06u l=600000u
X62 a_n7327_n1318# a_n7447_n1415# a_n7505_n1318# w_n8177_n1537# sky130_fd_pr__pfet_01v8 w=6e+06u l=600000u
X63 a_n6081_118# a_n6201_21# a_n6259_118# w_n8177_n1537# sky130_fd_pr__pfet_01v8 w=6e+06u l=600000u
X64 a_2997_118# a_2877_21# a_2819_118# w_n8177_n1537# sky130_fd_pr__pfet_01v8 w=6e+06u l=600000u
X65 a_n5191_118# a_n5311_21# a_n5369_118# w_n8177_n1537# sky130_fd_pr__pfet_01v8 w=6e+06u l=600000u
X66 a_2107_118# a_1987_21# a_1929_118# w_n8177_n1537# sky130_fd_pr__pfet_01v8 w=6e+06u l=600000u
X67 a_n6793_n1318# a_n6913_n1415# a_n6971_n1318# w_n8177_n1537# sky130_fd_pr__pfet_01v8 w=6e+06u l=600000u
X68 a_2819_n1318# a_2699_n1415# a_2641_n1318# w_n8177_n1537# sky130_fd_pr__pfet_01v8 w=6e+06u l=600000u
X69 a_n4301_118# a_n4421_21# a_n4479_118# w_n8177_n1537# sky130_fd_pr__pfet_01v8 w=6e+06u l=600000u
X70 a_n2343_n1318# a_n2463_n1415# a_n2521_n1318# w_n8177_n1537# sky130_fd_pr__pfet_01v8 w=6e+06u l=600000u
X71 a_n3411_118# a_n3531_21# a_n3589_118# w_n8177_n1537# sky130_fd_pr__pfet_01v8 w=6e+06u l=600000u
X72 a_1929_118# a_1809_21# a_1751_118# w_n8177_n1537# sky130_fd_pr__pfet_01v8 w=6e+06u l=600000u
X73 a_n2521_118# a_n2641_21# a_n2699_118# w_n8177_n1537# sky130_fd_pr__pfet_01v8 w=6e+06u l=600000u
X74 a_3531_n1318# a_3411_n1415# a_3353_n1318# w_n8177_n1537# sky130_fd_pr__pfet_01v8 w=6e+06u l=600000u
X75 a_n7149_n1318# a_n7269_n1415# a_n7327_n1318# w_n8177_n1537# sky130_fd_pr__pfet_01v8 w=6e+06u l=600000u
X76 a_n1631_118# a_n1751_21# a_n1809_118# w_n8177_n1537# sky130_fd_pr__pfet_01v8 w=6e+06u l=600000u
X77 a_n6615_n1318# a_n6735_n1415# a_n6793_n1318# w_n8177_n1537# sky130_fd_pr__pfet_01v8 w=6e+06u l=600000u
X78 a_4421_118# a_4301_21# a_4243_118# w_n8177_n1537# sky130_fd_pr__pfet_01v8 w=6e+06u l=600000u
X79 a_2107_n1318# a_1987_n1415# a_1929_n1318# w_n8177_n1537# sky130_fd_pr__pfet_01v8 w=6e+06u l=600000u
X80 a_n2165_n1318# a_n2285_n1415# a_n2343_n1318# w_n8177_n1537# sky130_fd_pr__pfet_01v8 w=6e+06u l=600000u
X81 a_3353_n1318# a_3233_n1415# a_3175_n1318# w_n8177_n1537# sky130_fd_pr__pfet_01v8 w=6e+06u l=600000u
X82 a_3531_118# a_3411_21# a_3353_118# w_n8177_n1537# sky130_fd_pr__pfet_01v8 w=6e+06u l=600000u
X83 a_n1631_n1318# a_n1751_n1415# a_n1809_n1318# w_n8177_n1537# sky130_fd_pr__pfet_01v8 w=6e+06u l=600000u
X84 a_n3945_118# a_n4065_21# a_n4123_118# w_n8177_n1537# sky130_fd_pr__pfet_01v8 w=6e+06u l=600000u
X85 a_2641_118# a_2521_21# a_2463_118# w_n8177_n1537# sky130_fd_pr__pfet_01v8 w=6e+06u l=600000u
X86 a_n3055_118# a_n3175_21# a_n3233_118# w_n8177_n1537# sky130_fd_pr__pfet_01v8 w=6e+06u l=600000u
X87 a_n2699_n1318# a_n2819_n1415# a_n2877_n1318# w_n8177_n1537# sky130_fd_pr__pfet_01v8 w=6e+06u l=600000u
X88 a_1751_118# a_1631_21# a_1573_118# w_n8177_n1537# sky130_fd_pr__pfet_01v8 w=6e+06u l=600000u
X89 a_n6437_n1318# a_n6557_n1415# a_n6615_n1318# w_n8177_n1537# sky130_fd_pr__pfet_01v8 w=6e+06u l=600000u
X90 a_n2165_118# a_n2285_21# a_n2343_118# w_n8177_n1537# sky130_fd_pr__pfet_01v8 w=6e+06u l=600000u
X91 a_7625_n1318# a_7505_n1415# a_7447_n1318# w_n8177_n1537# sky130_fd_pr__pfet_01v8 w=6e+06u l=600000u
X92 a_n1275_118# a_n1395_21# a_n1453_118# w_n8177_n1537# sky130_fd_pr__pfet_01v8 w=6e+06u l=600000u
X93 a_3175_n1318# a_3055_n1415# a_2997_n1318# w_n8177_n1537# sky130_fd_pr__pfet_01v8 w=6e+06u l=600000u
X94 a_n1987_118# a_n2107_21# a_n2165_118# w_n8177_n1537# sky130_fd_pr__pfet_01v8 w=6e+06u l=600000u
X95 a_n1453_n1318# a_n1573_n1415# a_n1631_n1318# w_n8177_n1537# sky130_fd_pr__pfet_01v8 w=6e+06u l=600000u
X96 a_n1097_118# a_n1217_21# a_n1275_118# w_n8177_n1537# sky130_fd_pr__pfet_01v8 w=6e+06u l=600000u
X97 a_2641_n1318# a_2521_n1415# a_2463_n1318# w_n8177_n1537# sky130_fd_pr__pfet_01v8 w=6e+06u l=600000u
X98 a_n6259_n1318# a_n6379_n1415# a_n6437_n1318# w_n8177_n1537# sky130_fd_pr__pfet_01v8 w=6e+06u l=600000u
X99 a_3175_118# a_3055_21# a_2997_118# w_n8177_n1537# sky130_fd_pr__pfet_01v8 w=6e+06u l=600000u
X100 a_7447_n1318# a_7327_n1415# a_7269_n1318# w_n8177_n1537# sky130_fd_pr__pfet_01v8 w=6e+06u l=600000u
X101 a_n385_n1318# a_n505_n1415# a_n563_n1318# w_n8177_n1537# sky130_fd_pr__pfet_01v8 w=6e+06u l=600000u
X102 a_n5725_n1318# a_n5845_n1415# a_n5903_n1318# w_n8177_n1537# sky130_fd_pr__pfet_01v8 w=6e+06u l=600000u
X103 a_2285_118# a_2165_21# a_2107_118# w_n8177_n1537# sky130_fd_pr__pfet_01v8 w=6e+06u l=600000u
X104 a_1395_118# a_1275_21# a_1217_118# w_n8177_n1537# sky130_fd_pr__pfet_01v8 w=6e+06u l=600000u
X105 a_n1275_n1318# a_n1395_n1415# a_n1453_n1318# w_n8177_n1537# sky130_fd_pr__pfet_01v8 w=6e+06u l=600000u
X106 a_6201_n1318# a_6081_n1415# a_6023_n1318# w_n8177_n1537# sky130_fd_pr__pfet_01v8 w=6e+06u l=600000u
X107 a_2463_n1318# a_2343_n1415# a_2285_n1318# w_n8177_n1537# sky130_fd_pr__pfet_01v8 w=6e+06u l=600000u
X108 a_1039_118# a_919_21# a_861_118# w_n8177_n1537# sky130_fd_pr__pfet_01v8 w=6e+06u l=600000u
X109 a_7269_n1318# a_7149_n1415# a_7091_n1318# w_n8177_n1537# sky130_fd_pr__pfet_01v8 w=6e+06u l=600000u
X110 a_n1809_n1318# a_n1929_n1415# a_n1987_n1318# w_n8177_n1537# sky130_fd_pr__pfet_01v8 w=6e+06u l=600000u
X111 a_n741_118# a_n861_21# a_n919_118# w_n8177_n1537# sky130_fd_pr__pfet_01v8 w=6e+06u l=600000u
X112 a_n207_n1318# a_n327_n1415# a_n385_n1318# w_n8177_n1537# sky130_fd_pr__pfet_01v8 w=6e+06u l=600000u
X113 a_n5547_n1318# a_n5667_n1415# a_n5725_n1318# w_n8177_n1537# sky130_fd_pr__pfet_01v8 w=6e+06u l=600000u
X114 a_6735_n1318# a_6615_n1415# a_6557_n1318# w_n8177_n1537# sky130_fd_pr__pfet_01v8 w=6e+06u l=600000u
X115 a_n7505_118# a_n7625_21# a_n7683_118# w_n8177_n1537# sky130_fd_pr__pfet_01v8 w=6e+06u l=600000u
X116 a_n6615_118# a_n6735_21# a_n6793_118# w_n8177_n1537# sky130_fd_pr__pfet_01v8 w=6e+06u l=600000u
X117 a_2285_n1318# a_2165_n1415# a_2107_n1318# w_n8177_n1537# sky130_fd_pr__pfet_01v8 w=6e+06u l=600000u
X118 a_n5725_118# a_n5845_21# a_n5903_118# w_n8177_n1537# sky130_fd_pr__pfet_01v8 w=6e+06u l=600000u
X119 a_1751_n1318# a_1631_n1415# a_1573_n1318# w_n8177_n1537# sky130_fd_pr__pfet_01v8 w=6e+06u l=600000u
X120 a_n4835_118# a_n4955_21# a_n5013_118# w_n8177_n1537# sky130_fd_pr__pfet_01v8 w=6e+06u l=600000u
X121 a_n29_n1318# a_n149_n1415# a_n207_n1318# w_n8177_n1537# sky130_fd_pr__pfet_01v8 w=6e+06u l=600000u
X122 a_n5369_n1318# a_n5489_n1415# a_n5547_n1318# w_n8177_n1537# sky130_fd_pr__pfet_01v8 w=6e+06u l=600000u
X123 a_7803_118# a_7683_21# a_7625_118# w_n8177_n1537# sky130_fd_pr__pfet_01v8 w=6e+06u l=600000u
X124 a_6557_n1318# a_6437_n1415# a_6379_n1318# w_n8177_n1537# sky130_fd_pr__pfet_01v8 w=6e+06u l=600000u
X125 a_861_118# a_741_21# a_683_118# w_n8177_n1537# sky130_fd_pr__pfet_01v8 w=6e+06u l=600000u
X126 a_6913_118# a_6793_21# a_6735_118# w_n8177_n1537# sky130_fd_pr__pfet_01v8 w=6e+06u l=600000u
X127 a_n4835_n1318# a_n4955_n1415# a_n5013_n1318# w_n8177_n1537# sky130_fd_pr__pfet_01v8 w=6e+06u l=600000u
X128 a_6023_n1318# a_5903_n1415# a_5845_n1318# w_n8177_n1537# sky130_fd_pr__pfet_01v8 w=6e+06u l=600000u
X129 a_n6081_n1318# a_n6201_n1415# a_n6259_n1318# w_n8177_n1537# sky130_fd_pr__pfet_01v8 w=6e+06u l=600000u
X130 a_7625_118# a_7505_21# a_7447_118# w_n8177_n1537# sky130_fd_pr__pfet_01v8 w=6e+06u l=600000u
X131 a_6735_118# a_6615_21# a_6557_118# w_n8177_n1537# sky130_fd_pr__pfet_01v8 w=6e+06u l=600000u
X132 a_n7149_118# a_n7269_21# a_n7327_118# w_n8177_n1537# sky130_fd_pr__pfet_01v8 w=6e+06u l=600000u
X133 a_5845_118# a_5725_21# a_5667_118# w_n8177_n1537# sky130_fd_pr__pfet_01v8 w=6e+06u l=600000u
X134 a_5311_n1318# a_5191_n1415# a_5133_n1318# w_n8177_n1537# sky130_fd_pr__pfet_01v8 w=6e+06u l=600000u
X135 a_1573_n1318# a_1453_n1415# a_1395_n1318# w_n8177_n1537# sky130_fd_pr__pfet_01v8 w=6e+06u l=600000u
X136 a_n6259_118# a_n6379_21# a_n6437_118# w_n8177_n1537# sky130_fd_pr__pfet_01v8 w=6e+06u l=600000u
X137 a_n207_118# a_n327_21# a_n385_118# w_n8177_n1537# sky130_fd_pr__pfet_01v8 w=6e+06u l=600000u
X138 a_4955_118# a_4835_21# a_4777_118# w_n8177_n1537# sky130_fd_pr__pfet_01v8 w=6e+06u l=600000u
X139 a_n5369_118# a_n5489_21# a_n5547_118# w_n8177_n1537# sky130_fd_pr__pfet_01v8 w=6e+06u l=600000u
X140 a_6379_n1318# a_6259_n1415# a_6201_n1318# w_n8177_n1537# sky130_fd_pr__pfet_01v8 w=6e+06u l=600000u
X141 a_n4657_n1318# a_n4777_n1415# a_n4835_n1318# w_n8177_n1537# sky130_fd_pr__pfet_01v8 w=6e+06u l=600000u
X142 a_4065_118# a_3945_21# a_3887_118# w_n8177_n1537# sky130_fd_pr__pfet_01v8 w=6e+06u l=600000u
X143 a_861_n1318# a_741_n1415# a_683_n1318# w_n8177_n1537# sky130_fd_pr__pfet_01v8 w=6e+06u l=600000u
X144 a_n4479_118# a_n4599_21# a_n4657_118# w_n8177_n1537# sky130_fd_pr__pfet_01v8 w=6e+06u l=600000u
X145 a_5845_n1318# a_5725_n1415# a_5667_n1318# w_n8177_n1537# sky130_fd_pr__pfet_01v8 w=6e+06u l=600000u
X146 a_n5903_n1318# a_n6023_n1415# a_n6081_n1318# w_n8177_n1537# sky130_fd_pr__pfet_01v8 w=6e+06u l=600000u
X147 a_n7861_n1318# a_n7981_n1415# a_n8039_n1318# w_n8177_n1537# sky130_fd_pr__pfet_01v8 w=6e+06u l=600000u
X148 a_505_118# a_385_21# a_327_118# w_n8177_n1537# sky130_fd_pr__pfet_01v8 w=6e+06u l=600000u
X149 a_1395_n1318# a_1275_n1415# a_1217_n1318# w_n8177_n1537# sky130_fd_pr__pfet_01v8 w=6e+06u l=600000u
X150 a_7269_118# a_7149_21# a_7091_118# w_n8177_n1537# sky130_fd_pr__pfet_01v8 w=6e+06u l=600000u
X151 a_327_118# a_207_21# a_149_118# w_n8177_n1537# sky130_fd_pr__pfet_01v8 w=6e+06u l=600000u
X152 a_6379_118# a_6259_21# a_6201_118# w_n8177_n1537# sky130_fd_pr__pfet_01v8 w=6e+06u l=600000u
X153 a_683_n1318# a_563_n1415# a_505_n1318# w_n8177_n1537# sky130_fd_pr__pfet_01v8 w=6e+06u l=600000u
X154 a_n4479_n1318# a_n4599_n1415# a_n4657_n1318# w_n8177_n1537# sky130_fd_pr__pfet_01v8 w=6e+06u l=600000u
X155 a_n6971_118# a_n7091_21# a_n7149_118# w_n8177_n1537# sky130_fd_pr__pfet_01v8 w=6e+06u l=600000u
X156 a_5489_118# a_5369_21# a_5311_118# w_n8177_n1537# sky130_fd_pr__pfet_01v8 w=6e+06u l=600000u
X157 a_5667_n1318# a_5547_n1415# a_5489_n1318# w_n8177_n1537# sky130_fd_pr__pfet_01v8 w=6e+06u l=600000u
X158 a_1929_n1318# a_1809_n1415# a_1751_n1318# w_n8177_n1537# sky130_fd_pr__pfet_01v8 w=6e+06u l=600000u
X159 a_n1987_n1318# a_n2107_n1415# a_n2165_n1318# w_n8177_n1537# sky130_fd_pr__pfet_01v8 w=6e+06u l=600000u
X160 a_4599_118# a_4479_21# a_4421_118# w_n8177_n1537# sky130_fd_pr__pfet_01v8 w=6e+06u l=600000u
X161 a_n5191_n1318# a_n5311_n1415# a_n5369_n1318# w_n8177_n1537# sky130_fd_pr__pfet_01v8 w=6e+06u l=600000u
X162 a_3709_118# a_3589_21# a_3531_118# w_n8177_n1537# sky130_fd_pr__pfet_01v8 w=6e+06u l=600000u
X163 a_1217_n1318# a_1097_n1415# a_1039_n1318# w_n8177_n1537# sky130_fd_pr__pfet_01v8 w=6e+06u l=600000u
X164 a_n5903_118# a_n6023_21# a_n6081_118# w_n8177_n1537# sky130_fd_pr__pfet_01v8 w=6e+06u l=600000u
X165 a_2819_118# a_2699_21# a_2641_118# w_n8177_n1537# sky130_fd_pr__pfet_01v8 w=6e+06u l=600000u
X166 a_n5013_118# a_n5133_21# a_n5191_118# w_n8177_n1537# sky130_fd_pr__pfet_01v8 w=6e+06u l=600000u
X167 a_n4123_118# a_n4243_21# a_n4301_118# w_n8177_n1537# sky130_fd_pr__pfet_01v8 w=6e+06u l=600000u
X168 a_505_n1318# a_385_n1415# a_327_n1318# w_n8177_n1537# sky130_fd_pr__pfet_01v8 w=6e+06u l=600000u
X169 a_5489_n1318# a_5369_n1415# a_5311_n1318# w_n8177_n1537# sky130_fd_pr__pfet_01v8 w=6e+06u l=600000u
X170 a_n3767_n1318# a_n3887_n1415# a_n3945_n1318# w_n8177_n1537# sky130_fd_pr__pfet_01v8 w=6e+06u l=600000u
X171 a_n3233_118# a_n3353_21# a_n3411_118# w_n8177_n1537# sky130_fd_pr__pfet_01v8 w=6e+06u l=600000u
X172 a_6201_118# a_6081_21# a_6023_118# w_n8177_n1537# sky130_fd_pr__pfet_01v8 w=6e+06u l=600000u
X173 a_4955_n1318# a_4835_n1415# a_4777_n1318# w_n8177_n1537# sky130_fd_pr__pfet_01v8 w=6e+06u l=600000u
X174 a_n5013_n1318# a_n5133_n1415# a_n5191_n1318# w_n8177_n1537# sky130_fd_pr__pfet_01v8 w=6e+06u l=600000u
X175 a_n2343_118# a_n2463_21# a_n2521_118# w_n8177_n1537# sky130_fd_pr__pfet_01v8 w=6e+06u l=600000u
X176 a_1039_n1318# a_919_n1415# a_861_n1318# w_n8177_n1537# sky130_fd_pr__pfet_01v8 w=6e+06u l=600000u
X177 a_n1453_118# a_n1573_21# a_n1631_118# w_n8177_n1537# sky130_fd_pr__pfet_01v8 w=6e+06u l=600000u
X178 a_5311_118# a_5191_21# a_5133_118# w_n8177_n1537# sky130_fd_pr__pfet_01v8 w=6e+06u l=600000u
X179 a_5133_118# a_5013_21# a_4955_118# w_n8177_n1537# sky130_fd_pr__pfet_01v8 w=6e+06u l=600000u
.ends

.subckt sky130_fd_pr__nfet_01v8_XGTW7K VSUBS a_n1275_109# a_n861_n1397# a_1275_21#
+ a_n1453_109# a_1751_109# a_n149_n1397# a_207_n1397# a_919_n1397# a_n1809_n1309#
+ a_1275_n1397# a_327_n1309# a_n683_21# a_n1809_109# a_n1631_109# a_n563_n1309# a_1395_n1309#
+ a_919_21# a_n505_n1397# a_1631_n1397# a_1453_21# a_1751_n1309# a_n861_21# a_n1573_n1397#
+ a_n919_n1309# a_n207_n1309# a_1039_n1309# a_n1039_21# a_207_21# a_683_109# a_n385_109#
+ a_385_n1397# a_n1275_n1309# a_1631_21# a_861_109# a_1039_109# a_n1217_n1397# a_385_21#
+ a_n563_109# a_1217_109# a_n919_109# a_n741_109# a_n683_n1397# a_741_n1397# a_n1631_n1309#
+ a_n1217_21# a_861_n1309# a_149_n1309# a_1097_n1397# a_n385_n1309# a_n1395_21# a_563_21#
+ a_n327_n1397# a_1453_n1397# a_505_n1309# a_n149_21# a_29_21# a_n29_109# a_n741_n1309#
+ a_1573_n1309# a_n1395_n1397# a_149_109# a_n1573_21# a_741_21# a_327_109# a_29_n1397#
+ a_n1751_n1397# a_n1097_n1309# a_n29_n1309# a_n327_21# a_505_109# a_n1039_n1397#
+ a_1217_n1309# a_n207_109# a_1097_21# a_563_n1397# a_n1751_21# a_n1453_n1309# a_683_n1309#
+ a_n1097_109# a_1395_109# w_n1947_n1519# a_n505_21# a_1573_109#
X0 a_n207_109# a_n327_21# a_n385_109# VSUBS sky130_fd_pr__nfet_01v8 w=6e+06u l=600000u