* NGSPICE file created from opamp_diego.ext - technology: sky130A

.subckt sky130_fd_pr__pfet_01v8_YT7TV5 a_n505_21# a_n387_21# a_384_118# w_n1642_n937#
+ a_n623_21# a_620_118# a_n387_n815# a_n1150_118# a_n33_n815# a_n741_21# a_321_n815#
+ a_n560_n718# a_675_n815# a_1092_n718# a_n1331_n815# a_n1449_21# a_n914_n718# a_1446_n718#
+ a_1029_n815# a_n151_21# a_n560_118# a_1092_118# a_n269_n815# a_620_n718# a_1328_118#
+ a_30_118# a_203_n815# a_974_n718# a_n442_n718# a_557_n815# a_n796_n718# a_439_21#
+ a_n1213_n815# a_n1213_21# a_n1095_21# a_557_21# a_1328_n718# a_n1331_21# a_n206_118#
+ a_675_21# a_738_118# a_911_21# a_n1268_118# a_793_21# a_n1504_118# a_502_n718# a_n1095_n815#
+ a_856_n718# a_85_n815# a_n324_n718# a_439_n815# a_203_21# a_n678_n718# a_148_118#
+ a_n1449_n815# a_321_21# a_n678_118# a_n33_21# a_n914_118# a_1446_118# a_384_n718#
+ a_1029_21# a_n741_n815# a_30_n718# a_1147_21# a_738_n718# a_n206_n718# a_n324_118#
+ a_1265_21# a_n1150_n718# a_856_118# a_1383_n815# a_1383_21# a_n1386_118# a_n1504_n718#
+ a_266_n718# a_n88_118# a_266_118# a_n623_n815# a_n977_n815# a_502_118# a_n796_118#
+ a_n88_n718# a_n1032_118# a_911_n815# a_n1032_n718# a_1265_n815# a_n1386_n718# a_n151_n815#
+ a_n859_21# a_148_n718# a_n442_118# a_974_118# a_n505_n815# a_n977_21# a_1210_118#
+ a_793_n815# a_n859_n815# a_85_21# a_1210_n718# a_n269_21# a_1147_n815# a_n1268_n718#
X0 a_1446_118# a_1383_21# a_1328_118# w_n1642_n937# sky130_fd_pr__pfet_01v8 ad=8.7e+11p pd=6.58e+06u as=8.7e+11p ps=6.58e+06u w=3e+06u l=300000u
X1 a_n1032_n718# a_n1095_n815# a_n1150_n718# w_n1642_n937# sky130_fd_pr__pfet_01v8 ad=8.7e+11p pd=6.58e+06u as=8.7e+11p ps=6.58e+06u w=3e+06u l=300000u
X2 a_n796_118# a_n859_21# a_n914_118# w_n1642_n937# sky130_fd_pr__pfet_01v8 ad=8.7e+11p pd=6.58e+06u as=8.7e+11p ps=6.58e+06u w=3e+06u l=300000u
X3 a_384_118# a_321_21# a_266_118# w_n1642_n937# sky130_fd_pr__pfet_01v8 ad=8.7e+11p pd=6.58e+06u as=8.7e+11p ps=6.58e+06u w=3e+06u l=300000u
X4 a_384_n718# a_321_n815# a_266_n718# w_n1642_n937# sky130_fd_pr__pfet_01v8 ad=8.7e+11p pd=6.58e+06u as=8.7e+11p ps=6.58e+06u w=3e+06u l=300000u
X5 a_n88_n718# a_n151_n815# a_n206_n718# w_n1642_n937# sky130_fd_pr__pfet_01v8 ad=8.7e+11p pd=6.58e+06u as=8.7e+11p ps=6.58e+06u w=3e+06u l=300000u
X6 a_1328_118# a_1265_21# a_1210_118# w_n1642_n937# sky130_fd_pr__pfet_01v8 ad=0p pd=0u as=8.7e+11p ps=6.58e+06u w=3e+06u l=300000u
X7 a_n1150_n718# a_n1213_n815# a_n1268_n718# w_n1642_n937# sky130_fd_pr__pfet_01v8 ad=0p pd=0u as=8.7e+11p ps=6.58e+06u w=3e+06u l=300000u
X8 a_n678_118# a_n741_21# a_n796_118# w_n1642_n937# sky130_fd_pr__pfet_01v8 ad=8.7e+11p pd=6.58e+06u as=0p ps=0u w=3e+06u l=300000u
X9 a_1210_n718# a_1147_n815# a_1092_n718# w_n1642_n937# sky130_fd_pr__pfet_01v8 ad=8.7e+11p pd=6.58e+06u as=8.7e+11p ps=6.58e+06u w=3e+06u l=300000u
X10 a_266_118# a_203_21# a_148_118# w_n1642_n937# sky130_fd_pr__pfet_01v8 ad=0p pd=0u as=8.7e+11p ps=6.58e+06u w=3e+06u l=300000u
X11 a_30_n718# a_n33_n815# a_n88_n718# w_n1642_n937# sky130_fd_pr__pfet_01v8 ad=8.7e+11p pd=6.58e+06u as=0p ps=0u w=3e+06u l=300000u
X12 a_1210_118# a_1147_21# a_1092_118# w_n1642_n937# sky130_fd_pr__pfet_01v8 ad=0p pd=0u as=8.7e+11p ps=6.58e+06u w=3e+06u l=300000u
X13 a_n914_n718# a_n977_n815# a_n1032_n718# w_n1642_n937# sky130_fd_pr__pfet_01v8 ad=8.7e+11p pd=6.58e+06u as=0p ps=0u w=3e+06u l=300000u
X14 a_n560_n718# a_n623_n815# a_n678_n718# w_n1642_n937# sky130_fd_pr__pfet_01v8 ad=8.7e+11p pd=6.58e+06u as=8.7e+11p ps=6.58e+06u w=3e+06u l=300000u
X15 a_1446_n718# a_1383_n815# a_1328_n718# w_n1642_n937# sky130_fd_pr__pfet_01v8 ad=8.7e+11p pd=6.58e+06u as=8.7e+11p ps=6.58e+06u w=3e+06u l=300000u
X16 a_n560_118# a_n623_21# a_n678_118# w_n1642_n937# sky130_fd_pr__pfet_01v8 ad=8.7e+11p pd=6.58e+06u as=0p ps=0u w=3e+06u l=300000u
X17 a_266_n718# a_203_n815# a_148_n718# w_n1642_n937# sky130_fd_pr__pfet_01v8 ad=0p pd=0u as=8.7e+11p ps=6.58e+06u w=3e+06u l=300000u
X18 a_620_n718# a_557_n815# a_502_n718# w_n1642_n937# sky130_fd_pr__pfet_01v8 ad=8.7e+11p pd=6.58e+06u as=8.7e+11p ps=6.58e+06u w=3e+06u l=300000u
X19 a_n1386_118# a_n1449_21# a_n1504_118# w_n1642_n937# sky130_fd_pr__pfet_01v8 ad=8.7e+11p pd=6.58e+06u as=8.7e+11p ps=6.58e+06u w=3e+06u l=300000u
X20 a_n324_118# a_n387_21# a_n442_118# w_n1642_n937# sky130_fd_pr__pfet_01v8 ad=8.7e+11p pd=6.58e+06u as=8.7e+11p ps=6.58e+06u w=3e+06u l=300000u
X21 a_856_118# a_793_21# a_738_118# w_n1642_n937# sky130_fd_pr__pfet_01v8 ad=8.7e+11p pd=6.58e+06u as=8.7e+11p ps=6.58e+06u w=3e+06u l=300000u
X22 a_1092_118# a_1029_21# a_974_118# w_n1642_n937# sky130_fd_pr__pfet_01v8 ad=0p pd=0u as=8.7e+11p ps=6.58e+06u w=3e+06u l=300000u
X23 a_n324_n718# a_n387_n815# a_n442_n718# w_n1642_n937# sky130_fd_pr__pfet_01v8 ad=8.7e+11p pd=6.58e+06u as=8.7e+11p ps=6.58e+06u w=3e+06u l=300000u
X24 a_n442_118# a_n505_21# a_n560_118# w_n1642_n937# sky130_fd_pr__pfet_01v8 ad=0p pd=0u as=0p ps=0u w=3e+06u l=300000u
X25 a_148_118# a_85_21# a_30_118# w_n1642_n937# sky130_fd_pr__pfet_01v8 ad=0p pd=0u as=8.7e+11p ps=6.58e+06u w=3e+06u l=300000u
X26 a_n1386_n718# a_n1449_n815# a_n1504_n718# w_n1642_n937# sky130_fd_pr__pfet_01v8 ad=8.7e+11p pd=6.58e+06u as=8.7e+11p ps=6.58e+06u w=3e+06u l=300000u
X27 a_856_n718# a_793_n815# a_738_n718# w_n1642_n937# sky130_fd_pr__pfet_01v8 ad=8.7e+11p pd=6.58e+06u as=8.7e+11p ps=6.58e+06u w=3e+06u l=300000u
X28 a_974_118# a_911_21# a_856_118# w_n1642_n937# sky130_fd_pr__pfet_01v8 ad=0p pd=0u as=0p ps=0u w=3e+06u l=300000u
X29 a_1092_n718# a_1029_n815# a_974_n718# w_n1642_n937# sky130_fd_pr__pfet_01v8 ad=0p pd=0u as=8.7e+11p ps=6.58e+06u w=3e+06u l=300000u
X30 a_n1268_118# a_n1331_21# a_n1386_118# w_n1642_n937# sky130_fd_pr__pfet_01v8 ad=8.7e+11p pd=6.58e+06u as=0p ps=0u w=3e+06u l=300000u
X31 a_n206_118# a_n269_21# a_n324_118# w_n1642_n937# sky130_fd_pr__pfet_01v8 ad=8.7e+11p pd=6.58e+06u as=0p ps=0u w=3e+06u l=300000u
X32 a_738_118# a_675_21# a_620_118# w_n1642_n937# sky130_fd_pr__pfet_01v8 ad=0p pd=0u as=8.7e+11p ps=6.58e+06u w=3e+06u l=300000u
X33 a_n796_n718# a_n859_n815# a_n914_n718# w_n1642_n937# sky130_fd_pr__pfet_01v8 ad=8.7e+11p pd=6.58e+06u as=0p ps=0u w=3e+06u l=300000u
X34 a_n1032_118# a_n1095_21# a_n1150_118# w_n1642_n937# sky130_fd_pr__pfet_01v8 ad=8.7e+11p pd=6.58e+06u as=8.7e+11p ps=6.58e+06u w=3e+06u l=300000u
X35 a_148_n718# a_85_n815# a_30_n718# w_n1642_n937# sky130_fd_pr__pfet_01v8 ad=0p pd=0u as=0p ps=0u w=3e+06u l=300000u
X36 a_1328_n718# a_1265_n815# a_1210_n718# w_n1642_n937# sky130_fd_pr__pfet_01v8 ad=0p pd=0u as=0p ps=0u w=3e+06u l=300000u
X37 a_n88_118# a_n151_21# a_n206_118# w_n1642_n937# sky130_fd_pr__pfet_01v8 ad=8.7e+11p pd=6.58e+06u as=0p ps=0u w=3e+06u l=300000u
X38 a_30_118# a_n33_21# a_n88_118# w_n1642_n937# sky130_fd_pr__pfet_01v8 ad=0p pd=0u as=0p ps=0u w=3e+06u l=300000u
X39 a_620_118# a_557_21# a_502_118# w_n1642_n937# sky130_fd_pr__pfet_01v8 ad=0p pd=0u as=8.7e+11p ps=6.58e+06u w=3e+06u l=300000u
X40 a_502_n718# a_439_n815# a_384_n718# w_n1642_n937# sky130_fd_pr__pfet_01v8 ad=0p pd=0u as=0p ps=0u w=3e+06u l=300000u
X41 a_n1150_118# a_n1213_21# a_n1268_118# w_n1642_n937# sky130_fd_pr__pfet_01v8 ad=0p pd=0u as=0p ps=0u w=3e+06u l=300000u
X42 a_n206_n718# a_n269_n815# a_n324_n718# w_n1642_n937# sky130_fd_pr__pfet_01v8 ad=0p pd=0u as=0p ps=0u w=3e+06u l=300000u
X43 a_738_n718# a_675_n815# a_620_n718# w_n1642_n937# sky130_fd_pr__pfet_01v8 ad=0p pd=0u as=0p ps=0u w=3e+06u l=300000u
X44 a_n1268_n718# a_n1331_n815# a_n1386_n718# w_n1642_n937# sky130_fd_pr__pfet_01v8 ad=0p pd=0u as=0p ps=0u w=3e+06u l=300000u
X45 a_n914_118# a_n977_21# a_n1032_118# w_n1642_n937# sky130_fd_pr__pfet_01v8 ad=0p pd=0u as=0p ps=0u w=3e+06u l=300000u
X46 a_n442_n718# a_n505_n815# a_n560_n718# w_n1642_n937# sky130_fd_pr__pfet_01v8 ad=0p pd=0u as=0p ps=0u w=3e+06u l=300000u
X47 a_502_118# a_439_21# a_384_118# w_n1642_n937# sky130_fd_pr__pfet_01v8 ad=0p pd=0u as=0p ps=0u w=3e+06u l=300000u
X48 a_974_n718# a_911_n815# a_856_n718# w_n1642_n937# sky130_fd_pr__pfet_01v8 ad=0p pd=0u as=0p ps=0u w=3e+06u l=300000u
X49 a_n678_n718# a_n741_n815# a_n796_n718# w_n1642_n937# sky130_fd_pr__pfet_01v8 ad=0p pd=0u as=0p ps=0u w=3e+06u l=300000u
.ends

.subckt sky130_fd_pr__nfet_01v8_8HUREQ a_384_n709# a_557_n797# a_203_n797# a_n387_21#
+ a_n505_21# a_30_n709# a_n623_21# a_738_n709# a_n206_n709# a_n741_21# a_n324_109#
+ a_856_109# a_85_n797# a_n151_21# a_266_n709# a_439_n797# a_n88_109# a_266_109# a_n88_n709#
+ a_502_109# a_n796_109# a_439_21# w_n1052_n919# a_n741_n797# a_557_21# a_148_n709#
+ a_675_21# a_n442_109# a_793_21# a_203_21# a_n623_n797# a_321_21# a_620_109# a_384_109#
+ a_n33_21# a_n560_n709# a_n151_n797# a_n914_n709# a_793_n797# a_n505_n797# a_n859_n797#
+ a_n560_109# a_620_n709# a_n442_n709# a_30_109# a_n796_n709# a_n387_n797# a_321_n797#
+ a_n33_n797# a_n206_109# a_675_n797# a_738_109# a_502_n709# a_n859_21# a_856_n709#
+ a_n324_n709# a_n678_n709# a_148_109# a_85_21# a_n269_n797# a_n678_109# a_n914_109#
+ a_n269_21#
X0 a_n678_109# a_n741_21# a_n796_109# w_n1052_n919# sky130_fd_pr__nfet_01v8 ad=8.7e+11p pd=6.58e+06u as=8.7e+11p ps=6.58e+06u w=3e+06u l=300000u
X1 a_266_109# a_203_21# a_148_109# w_n1052_n919# sky130_fd_pr__nfet_01v8 ad=8.7e+11p pd=6.58e+06u as=8.7e+11p ps=6.58e+06u w=3e+06u l=300000u
X2 a_30_n709# a_n33_n797# a_n88_n709# w_n1052_n919# sky130_fd_pr__nfet_01v8 ad=8.7e+11p pd=6.58e+06u as=8.7e+11p ps=6.58e+06u w=3e+06u l=300000u
X3 a_n560_n709# a_n623_n797# a_n678_n709# w_n1052_n919# sky130_fd_pr__nfet_01v8 ad=8.7e+11p pd=6.58e+06u as=8.7e+11p ps=6.58e+06u w=3e+06u l=300000u
X4 a_n560_109# a_n623_21# a_n678_109# w_n1052_n919# sky130_fd_pr__nfet_01v8 ad=8.7e+11p pd=6.58e+06u as=0p ps=0u w=3e+06u l=300000u
X5 a_n324_109# a_n387_21# a_n442_109# w_n1052_n919# sky130_fd_pr__nfet_01v8 ad=8.7e+11p pd=6.58e+06u as=8.7e+11p ps=6.58e+06u w=3e+06u l=300000u
X6 a_266_n709# a_203_n797# a_148_n709# w_n1052_n919# sky130_fd_pr__nfet_01v8 ad=8.7e+11p pd=6.58e+06u as=8.7e+11p ps=6.58e+06u w=3e+06u l=300000u
X7 a_620_n709# a_557_n797# a_502_n709# w_n1052_n919# sky130_fd_pr__nfet_01v8 ad=8.7e+11p pd=6.58e+06u as=8.7e+11p ps=6.58e+06u w=3e+06u l=300000u
X8 a_856_109# a_793_21# a_738_109# w_n1052_n919# sky130_fd_pr__nfet_01v8 ad=8.7e+11p pd=6.58e+06u as=8.7e+11p ps=6.58e+06u w=3e+06u l=300000u
X9 a_n324_n709# a_n387_n797# a_n442_n709# w_n1052_n919# sky130_fd_pr__nfet_01v8 ad=8.7e+11p pd=6.58e+06u as=8.7e+11p ps=6.58e+06u w=3e+06u l=300000u
X10 a_n442_109# a_n505_21# a_n560_109# w_n1052_n919# sky130_fd_pr__nfet_01v8 ad=0p pd=0u as=0p ps=0u w=3e+06u l=300000u
X11 a_148_109# a_85_21# a_30_109# w_n1052_n919# sky130_fd_pr__nfet_01v8 ad=0p pd=0u as=8.7e+11p ps=6.58e+06u w=3e+06u l=300000u
X12 a_856_n709# a_793_n797# a_738_n709# w_n1052_n919# sky130_fd_pr__nfet_01v8 ad=8.7e+11p pd=6.58e+06u as=8.7e+11p ps=6.58e+06u w=3e+06u l=300000u
X13 a_n206_109# a_n269_21# a_n324_109# w_n1052_n919# sky130_fd_pr__nfet_01v8 ad=8.7e+11p pd=6.58e+06u as=0p ps=0u w=3e+06u l=300000u
X14 a_738_109# a_675_21# a_620_109# w_n1052_n919# sky130_fd_pr__nfet_01v8 ad=0p pd=0u as=8.7e+11p ps=6.58e+06u w=3e+06u l=300000u
X15 a_n796_n709# a_n859_n797# a_n914_n709# w_n1052_n919# sky130_fd_pr__nfet_01v8 ad=8.7e+11p pd=6.58e+06u as=8.7e+11p ps=6.58e+06u w=3e+06u l=300000u
X16 a_148_n709# a_85_n797# a_30_n709# w_n1052_n919# sky130_fd_pr__nfet_01v8 ad=0p pd=0u as=0p ps=0u w=3e+06u l=300000u
X17 a_620_109# a_557_21# a_502_109# w_n1052_n919# sky130_fd_pr__nfet_01v8 ad=0p pd=0u as=8.7e+11p ps=6.58e+06u w=3e+06u l=300000u
X18 a_n88_109# a_n151_21# a_n206_109# w_n1052_n919# sky130_fd_pr__nfet_01v8 ad=8.7e+11p pd=6.58e+06u as=0p ps=0u w=3e+06u l=300000u
X19 a_30_109# a_n33_21# a_n88_109# w_n1052_n919# sky130_fd_pr__nfet_01v8 ad=0p pd=0u as=0p ps=0u w=3e+06u l=300000u
X20 a_502_n709# a_439_n797# a_384_n709# w_n1052_n919# sky130_fd_pr__nfet_01v8 ad=0p pd=0u as=8.7e+11p ps=6.58e+06u w=3e+06u l=300000u
X21 a_n206_n709# a_n269_n797# a_n324_n709# w_n1052_n919# sky130_fd_pr__nfet_01v8 ad=8.7e+11p pd=6.58e+06u as=0p ps=0u w=3e+06u l=300000u
X22 a_738_n709# a_675_n797# a_620_n709# w_n1052_n919# sky130_fd_pr__nfet_01v8 ad=0p pd=0u as=0p ps=0u w=3e+06u l=300000u
X23 a_n442_n709# a_n505_n797# a_n560_n709# w_n1052_n919# sky130_fd_pr__nfet_01v8 ad=0p pd=0u as=0p ps=0u w=3e+06u l=300000u
X24 a_502_109# a_439_21# a_384_109# w_n1052_n919# sky130_fd_pr__nfet_01v8 ad=0p pd=0u as=8.7e+11p ps=6.58e+06u w=3e+06u l=300000u
X25 a_n678_n709# a_n741_n797# a_n796_n709# w_n1052_n919# sky130_fd_pr__nfet_01v8 ad=0p pd=0u as=0p ps=0u w=3e+06u l=300000u
X26 a_n796_109# a_n859_21# a_n914_109# w_n1052_n919# sky130_fd_pr__nfet_01v8 ad=0p pd=0u as=8.7e+11p ps=6.58e+06u w=3e+06u l=300000u
X27 a_384_109# a_321_21# a_266_109# w_n1052_n919# sky130_fd_pr__nfet_01v8 ad=0p pd=0u as=0p ps=0u w=3e+06u l=300000u
X28 a_384_n709# a_321_n797# a_266_n709# w_n1052_n919# sky130_fd_pr__nfet_01v8 ad=0p pd=0u as=0p ps=0u w=3e+06u l=300000u
X29 a_n88_n709# a_n151_n797# a_n206_n709# w_n1052_n919# sky130_fd_pr__nfet_01v8 ad=0p pd=0u as=0p ps=0u w=3e+06u l=300000u
.ends

.subckt sky130_fd_pr__cap_mim_m3_1_BLS9H9 m3_n1941_n1600# c1_n1841_n1500#
X0 c1_n1841_n1500# m3_n1941_n1600# sky130_fd_pr__cap_mim_m3_1 l=1.5e+07u w=1.755e+07u
.ends

.subckt sky130_fd_pr__pfet_01v8_YC9MKB a_856_n300# a_n324_n300# a_n505_n397# a_n678_n300#
+ a_793_n397# a_n859_n397# a_384_n300# a_n387_n397# a_30_n300# a_321_n397# a_n33_n397#
+ a_738_n300# a_n206_n300# a_675_n397# a_266_n300# a_n269_n397# a_n88_n300# a_203_n397#
+ a_557_n397# a_148_n300# a_439_n397# a_85_n397# w_n1052_n519# a_n560_n300# a_n741_n397#
+ a_n914_n300# a_620_n300# a_n442_n300# a_n796_n300# a_n623_n397# a_n151_n397# a_502_n300#
X0 a_n560_n300# a_n623_n397# a_n678_n300# w_n1052_n519# sky130_fd_pr__pfet_01v8 ad=8.7e+11p pd=6.58e+06u as=8.7e+11p ps=6.58e+06u w=3e+06u l=300000u
X1 a_30_n300# a_n33_n397# a_n88_n300# w_n1052_n519# sky130_fd_pr__pfet_01v8 ad=8.7e+11p pd=6.58e+06u as=8.7e+11p ps=6.58e+06u w=3e+06u l=300000u
X2 a_266_n300# a_203_n397# a_148_n300# w_n1052_n519# sky130_fd_pr__pfet_01v8 ad=8.7e+11p pd=6.58e+06u as=8.7e+11p ps=6.58e+06u w=3e+06u l=300000u
X3 a_620_n300# a_557_n397# a_502_n300# w_n1052_n519# sky130_fd_pr__pfet_01v8 ad=8.7e+11p pd=6.58e+06u as=8.7e+11p ps=6.58e+06u w=3e+06u l=300000u
X4 a_n324_n300# a_n387_n397# a_n442_n300# w_n1052_n519# sky130_fd_pr__pfet_01v8 ad=8.7e+11p pd=6.58e+06u as=8.7e+11p ps=6.58e+06u w=3e+06u l=300000u
X5 a_856_n300# a_793_n397# a_738_n300# w_n1052_n519# sky130_fd_pr__pfet_01v8 ad=8.7e+11p pd=6.58e+06u as=8.7e+11p ps=6.58e+06u w=3e+06u l=300000u
X6 a_n796_n300# a_n859_n397# a_n914_n300# w_n1052_n519# sky130_fd_pr__pfet_01v8 ad=8.7e+11p pd=6.58e+06u as=8.7e+11p ps=6.58e+06u w=3e+06u l=300000u
X7 a_148_n300# a_85_n397# a_30_n300# w_n1052_n519# sky130_fd_pr__pfet_01v8 ad=0p pd=0u as=0p ps=0u w=3e+06u l=300000u
X8 a_502_n300# a_439_n397# a_384_n300# w_n1052_n519# sky130_fd_pr__pfet_01v8 ad=0p pd=0u as=8.7e+11p ps=6.58e+06u w=3e+06u l=300000u
X9 a_n206_n300# a_n269_n397# a_n324_n300# w_n1052_n519# sky130_fd_pr__pfet_01v8 ad=8.7e+11p pd=6.58e+06u as=0p ps=0u w=3e+06u l=300000u
X10 a_738_n300# a_675_n397# a_620_n300# w_n1052_n519# sky130_fd_pr__pfet_01v8 ad=0p pd=0u as=0p ps=0u w=3e+06u l=300000u
X11 a_n442_n300# a_n505_n397# a_n560_n300# w_n1052_n519# sky130_fd_pr__pfet_01v8 ad=0p pd=0u as=0p ps=0u w=3e+06u l=300000u
X12 a_n678_n300# a_n741_n397# a_n796_n300# w_n1052_n519# sky130_fd_pr__pfet_01v8 ad=0p pd=0u as=0p ps=0u w=3e+06u l=300000u
X13 a_384_n300# a_321_n397# a_266_n300# w_n1052_n519# sky130_fd_pr__pfet_01v8 ad=0p pd=0u as=0p ps=0u w=3e+06u l=300000u
X14 a_n88_n300# a_n151_n397# a_n206_n300# w_n1052_n519# sky130_fd_pr__pfet_01v8 ad=0p pd=0u as=0p ps=0u w=3e+06u l=300000u
.ends

.subckt sky130_fd_pr__nfet_01v8_GQFJAV a_15_n75# a_n69_97# a_n73_n75# w_n211_n285#
X0 a_15_n75# a_n69_97# a_n73_n75# w_n211_n285# sky130_fd_pr__nfet_01v8 ad=2.175e+11p pd=2.08e+06u as=2.175e+11p ps=2.08e+06u w=750000u l=150000u
.ends

.subckt sky130_fd_pr__pfet_01v8_YCMRKB a_n1390_n815# a_89_n718# a_1678_21# a_915_118#
+ a_1151_n718# a_1914_21# a_n2216_21# a_734_n815# a_n2153_n718# a_380_21# a_n2098_21#
+ a_2032_n815# a_n973_n718# a_n1445_118# a_1796_21# a_1977_118# a_n92_21# a_2386_n815#
+ a_n1744_n815# a_1088_n815# a_n2334_21# w_n3117_n937# a_2803_n718# a_1206_21# a_1505_n718#
+ a_n2507_n718# a_n1209_n718# a_1088_21# a_1859_n718# a_2213_118# a_n2452_21# a_325_118#
+ a_1324_21# a_262_n815# a_n855_118# a_n2743_118# a_n2570_21# a_n328_n815# a_1387_118#
+ a_1442_21# a_1623_118# a_n2570_n815# a_n1272_n815# a_n501_n718# a_1033_n718# a_2331_n718#
+ a_1560_21# a_616_n815# a_n2035_n718# a_89_118# a_n855_n718# a_2685_n718# a_1387_n718#
+ a_2268_n815# a_n2389_n718# a_n2924_n815# a_n1626_n815# a_2685_118# a_n265_118# a_n2153_118#
+ a_797_118# a_n501_118# a_2921_118# a_1033_118# a_2858_21# a_561_n718# a_144_n815#
+ a_n1563_118# a_n383_n718# a_498_n815# a_n2452_n815# a_n1154_n815# a_915_n718# a_2095_118#
+ a_2213_n718# a_2268_21# a_n918_21# a_2331_118# a_n737_n718# a_2567_n718# a_1269_n718#
+ a_443_118# a_n2806_n815# a_2504_21# a_n1508_n815# a_n1681_n718# a_2386_21# a_26_21#
+ a_1560_n815# a_n973_118# a_n2861_118# a_2622_21# a_1741_118# a_1914_n815# a_443_n718#
+ a_n328_21# a_2740_21# a_797_n718# a_n1209_118# a_n800_n815# a_n265_n718# a_2095_n718#
+ a_n446_21# a_n2334_n815# a_n1036_n815# a_n383_118# a_n2271_118# a_n2688_n815# a_2032_21#
+ a_26_n815# a_1151_118# a_n564_21# a_n619_n718# a_2449_n718# a_2150_21# a_n800_21#
+ a_2740_n815# a_n2861_n718# a_n1563_n718# a_1442_n815# a_n619_118# a_n1681_118# a_n682_21#
+ a_n2507_118# a_1796_n815# a_n1508_21# a_n682_n815# a_n1917_n718# a_325_n718# a_n1626_21#
+ a_679_n718# a_n1917_118# a_n210_21# a_n147_n718# a_561_118# a_n2216_n815# a_970_n815#
+ a_n1744_21# a_n1091_n718# a_n1091_118# a_2449_118# a_n1980_n815# a_n1862_21# a_1741_n718#
+ a_n2979_118# a_n1036_21# a_2622_n815# a_n2743_n718# a_n1445_n718# a_1324_n815# a_1859_118#
+ a_n1327_118# a_n1980_21# a_1678_n815# a_n1799_n718# a_n1154_21# a_n210_n815# a_n564_n815#
+ a_207_n718# a_616_21# a_n2098_n815# a_n1272_21# a_n29_118# a_498_21# a_207_118#
+ a_n2389_118# a_734_21# a_852_n815# a_n2271_n718# a_n1390_21# a_n918_n815# a_2150_n815#
+ a_n737_118# a_n2625_118# a_n29_n718# a_1269_118# a_n1862_n815# a_1505_118# a_852_21#
+ a_2921_n718# a_1623_n718# a_n1799_118# a_2504_n815# a_n2625_n718# a_n1327_n718#
+ a_1206_n815# a_1977_n718# a_970_21# a_n2806_21# a_n2979_n718# a_n2688_21# a_2858_n815#
+ a_144_21# a_n92_n815# a_380_n815# a_n147_118# a_n2035_118# a_n2924_21# a_n446_n815#
+ a_2567_118# a_2803_118# a_679_118# a_262_21#
X0 a_561_n718# a_498_n815# a_443_n718# w_n3117_n937# sky130_fd_pr__pfet_01v8 ad=8.7e+11p pd=6.58e+06u as=8.7e+11p ps=6.58e+06u w=3e+06u l=300000u
X1 a_n383_118# a_n446_21# a_n501_118# w_n3117_n937# sky130_fd_pr__pfet_01v8 ad=8.7e+11p pd=6.58e+06u as=8.7e+11p ps=6.58e+06u w=3e+06u l=300000u
X2 a_n265_n718# a_n328_n815# a_n383_n718# w_n3117_n937# sky130_fd_pr__pfet_01v8 ad=8.7e+11p pd=6.58e+06u as=8.7e+11p ps=6.58e+06u w=3e+06u l=300000u
X3 a_n1445_118# a_n1508_21# a_n1563_118# w_n3117_n937# sky130_fd_pr__pfet_01v8 ad=8.7e+11p pd=6.58e+06u as=8.7e+11p ps=6.58e+06u w=3e+06u l=300000u
X4 a_915_118# a_852_21# a_797_118# w_n3117_n937# sky130_fd_pr__pfet_01v8 ad=8.7e+11p pd=6.58e+06u as=8.7e+11p ps=6.58e+06u w=3e+06u l=300000u
X5 a_n2625_n718# a_n2688_n815# a_n2743_n718# w_n3117_n937# sky130_fd_pr__pfet_01v8 ad=8.7e+11p pd=6.58e+06u as=8.7e+11p ps=6.58e+06u w=3e+06u l=300000u
X6 a_1151_n718# a_1088_n815# a_1033_n718# w_n3117_n937# sky130_fd_pr__pfet_01v8 ad=8.7e+11p pd=6.58e+06u as=8.7e+11p ps=6.58e+06u w=3e+06u l=300000u
X7 a_n2153_118# a_n2216_21# a_n2271_118# w_n3117_n937# sky130_fd_pr__pfet_01v8 ad=8.7e+11p pd=6.58e+06u as=8.7e+11p ps=6.58e+06u w=3e+06u l=300000u
X8 a_797_n718# a_734_n815# a_679_n718# w_n3117_n937# sky130_fd_pr__pfet_01v8 ad=8.7e+11p pd=6.58e+06u as=8.7e+11p ps=6.58e+06u w=3e+06u l=300000u
X9 a_2803_118# a_2740_21# a_2685_118# w_n3117_n937# sky130_fd_pr__pfet_01v8 ad=8.7e+11p pd=6.58e+06u as=8.7e+11p ps=6.58e+06u w=3e+06u l=300000u
X10 a_2331_n718# a_2268_n815# a_2213_n718# w_n3117_n937# sky130_fd_pr__pfet_01v8 ad=8.7e+11p pd=6.58e+06u as=8.7e+11p ps=6.58e+06u w=3e+06u l=300000u
X11 a_n29_118# a_n92_21# a_n147_118# w_n3117_n937# sky130_fd_pr__pfet_01v8 ad=8.7e+11p pd=6.58e+06u as=8.7e+11p ps=6.58e+06u w=3e+06u l=300000u
X12 a_n1681_n718# a_n1744_n815# a_n1799_n718# w_n3117_n937# sky130_fd_pr__pfet_01v8 ad=8.7e+11p pd=6.58e+06u as=8.7e+11p ps=6.58e+06u w=3e+06u l=300000u
X13 a_n1209_118# a_n1272_21# a_n1327_118# w_n3117_n937# sky130_fd_pr__pfet_01v8 ad=8.7e+11p pd=6.58e+06u as=8.7e+11p ps=6.58e+06u w=3e+06u l=300000u
X14 a_1859_118# a_1796_21# a_1741_118# w_n3117_n937# sky130_fd_pr__pfet_01v8 ad=8.7e+11p pd=6.58e+06u as=8.7e+11p ps=6.58e+06u w=3e+06u l=300000u
X15 a_n2861_n718# a_n2924_n815# a_n2979_n718# w_n3117_n937# sky130_fd_pr__pfet_01v8 ad=8.7e+11p pd=6.58e+06u as=8.7e+11p ps=6.58e+06u w=3e+06u l=300000u
X16 a_n265_118# a_n328_21# a_n383_118# w_n3117_n937# sky130_fd_pr__pfet_01v8 ad=8.7e+11p pd=6.58e+06u as=0p ps=0u w=3e+06u l=300000u
X17 a_n1917_n718# a_n1980_n815# a_n2035_n718# w_n3117_n937# sky130_fd_pr__pfet_01v8 ad=8.7e+11p pd=6.58e+06u as=8.7e+11p ps=6.58e+06u w=3e+06u l=300000u
X18 a_n2035_n718# a_n2098_n815# a_n2153_n718# w_n3117_n937# sky130_fd_pr__pfet_01v8 ad=0p pd=0u as=8.7e+11p ps=6.58e+06u w=3e+06u l=300000u
X19 a_797_118# a_734_21# a_679_118# w_n3117_n937# sky130_fd_pr__pfet_01v8 ad=0p pd=0u as=8.7e+11p ps=6.58e+06u w=3e+06u l=300000u
X20 a_1977_118# a_1914_21# a_1859_118# w_n3117_n937# sky130_fd_pr__pfet_01v8 ad=8.7e+11p pd=6.58e+06u as=0p ps=0u w=3e+06u l=300000u
X21 a_1269_n718# a_1206_n815# a_1151_n718# w_n3117_n937# sky130_fd_pr__pfet_01v8 ad=8.7e+11p pd=6.58e+06u as=0p ps=0u w=3e+06u l=300000u
X22 a_1623_n718# a_1560_n815# a_1505_n718# w_n3117_n937# sky130_fd_pr__pfet_01v8 ad=8.7e+11p pd=6.58e+06u as=8.7e+11p ps=6.58e+06u w=3e+06u l=300000u
X23 a_207_n718# a_144_n815# a_89_n718# w_n3117_n937# sky130_fd_pr__pfet_01v8 ad=8.7e+11p pd=6.58e+06u as=8.7e+11p ps=6.58e+06u w=3e+06u l=300000u
X24 a_89_n718# a_26_n815# a_n29_n718# w_n3117_n937# sky130_fd_pr__pfet_01v8 ad=0p pd=0u as=8.7e+11p ps=6.58e+06u w=3e+06u l=300000u
X25 a_n1091_118# a_n1154_21# a_n1209_118# w_n3117_n937# sky130_fd_pr__pfet_01v8 ad=8.7e+11p pd=6.58e+06u as=0p ps=0u w=3e+06u l=300000u
X26 a_2685_118# a_2622_21# a_2567_118# w_n3117_n937# sky130_fd_pr__pfet_01v8 ad=0p pd=0u as=8.7e+11p ps=6.58e+06u w=3e+06u l=300000u
X27 a_1741_118# a_1678_21# a_1623_118# w_n3117_n937# sky130_fd_pr__pfet_01v8 ad=0p pd=0u as=8.7e+11p ps=6.58e+06u w=3e+06u l=300000u
X28 a_2803_n718# a_2740_n815# a_2685_n718# w_n3117_n937# sky130_fd_pr__pfet_01v8 ad=8.7e+11p pd=6.58e+06u as=8.7e+11p ps=6.58e+06u w=3e+06u l=300000u
X29 a_n1091_n718# a_n1154_n815# a_n1209_n718# w_n3117_n937# sky130_fd_pr__pfet_01v8 ad=8.7e+11p pd=6.58e+06u as=8.7e+11p ps=6.58e+06u w=3e+06u l=300000u
X30 a_89_118# a_26_21# a_n29_118# w_n3117_n937# sky130_fd_pr__pfet_01v8 ad=8.7e+11p pd=6.58e+06u as=0p ps=0u w=3e+06u l=300000u
X31 a_n2271_n718# a_n2334_n815# a_n2389_n718# w_n3117_n937# sky130_fd_pr__pfet_01v8 ad=8.7e+11p pd=6.58e+06u as=8.7e+11p ps=6.58e+06u w=3e+06u l=300000u
X32 a_1859_n718# a_1796_n815# a_1741_n718# w_n3117_n937# sky130_fd_pr__pfet_01v8 ad=8.7e+11p pd=6.58e+06u as=8.7e+11p ps=6.58e+06u w=3e+06u l=300000u
X33 a_2449_118# a_2386_21# a_2331_118# w_n3117_n937# sky130_fd_pr__pfet_01v8 ad=8.7e+11p pd=6.58e+06u as=8.7e+11p ps=6.58e+06u w=3e+06u l=300000u
X34 a_n1327_n718# a_n1390_n815# a_n1445_n718# w_n3117_n937# sky130_fd_pr__pfet_01v8 ad=8.7e+11p pd=6.58e+06u as=8.7e+11p ps=6.58e+06u w=3e+06u l=300000u
X35 a_n147_118# a_n210_21# a_n265_118# w_n3117_n937# sky130_fd_pr__pfet_01v8 ad=0p pd=0u as=0p ps=0u w=3e+06u l=300000u
X36 a_n147_n718# a_n210_n815# a_n265_n718# w_n3117_n937# sky130_fd_pr__pfet_01v8 ad=8.7e+11p pd=6.58e+06u as=0p ps=0u w=3e+06u l=300000u
X37 a_n2861_118# a_n2924_21# a_n2979_118# w_n3117_n937# sky130_fd_pr__pfet_01v8 ad=8.7e+11p pd=6.58e+06u as=8.7e+11p ps=6.58e+06u w=3e+06u l=300000u
X38 a_n501_n718# a_n564_n815# a_n619_n718# w_n3117_n937# sky130_fd_pr__pfet_01v8 ad=8.7e+11p pd=6.58e+06u as=8.7e+11p ps=6.58e+06u w=3e+06u l=300000u
X39 a_n2507_n718# a_n2570_n815# a_n2625_n718# w_n3117_n937# sky130_fd_pr__pfet_01v8 ad=8.7e+11p pd=6.58e+06u as=0p ps=0u w=3e+06u l=300000u
X40 a_679_118# a_616_21# a_561_118# w_n3117_n937# sky130_fd_pr__pfet_01v8 ad=0p pd=0u as=8.7e+11p ps=6.58e+06u w=3e+06u l=300000u
X41 a_443_118# a_380_21# a_325_118# w_n3117_n937# sky130_fd_pr__pfet_01v8 ad=8.7e+11p pd=6.58e+06u as=8.7e+11p ps=6.58e+06u w=3e+06u l=300000u
X42 a_n973_118# a_n1036_21# a_n1091_118# w_n3117_n937# sky130_fd_pr__pfet_01v8 ad=8.7e+11p pd=6.58e+06u as=0p ps=0u w=3e+06u l=300000u
X43 a_n1917_118# a_n1980_21# a_n2035_118# w_n3117_n937# sky130_fd_pr__pfet_01v8 ad=8.7e+11p pd=6.58e+06u as=8.7e+11p ps=6.58e+06u w=3e+06u l=300000u
X44 a_679_n718# a_616_n815# a_561_n718# w_n3117_n937# sky130_fd_pr__pfet_01v8 ad=0p pd=0u as=0p ps=0u w=3e+06u l=300000u
X45 a_1623_118# a_1560_21# a_1505_118# w_n3117_n937# sky130_fd_pr__pfet_01v8 ad=0p pd=0u as=8.7e+11p ps=6.58e+06u w=3e+06u l=300000u
X46 a_2213_n718# a_2150_n815# a_2095_n718# w_n3117_n937# sky130_fd_pr__pfet_01v8 ad=0p pd=0u as=8.7e+11p ps=6.58e+06u w=3e+06u l=300000u
X47 a_2567_118# a_2504_21# a_2449_118# w_n3117_n937# sky130_fd_pr__pfet_01v8 ad=0p pd=0u as=0p ps=0u w=3e+06u l=300000u
X48 a_1033_n718# a_970_n815# a_915_n718# w_n3117_n937# sky130_fd_pr__pfet_01v8 ad=0p pd=0u as=8.7e+11p ps=6.58e+06u w=3e+06u l=300000u
X49 a_n2625_118# a_n2688_21# a_n2743_118# w_n3117_n937# sky130_fd_pr__pfet_01v8 ad=8.7e+11p pd=6.58e+06u as=8.7e+11p ps=6.58e+06u w=3e+06u l=300000u
X50 a_n1563_n718# a_n1626_n815# a_n1681_n718# w_n3117_n937# sky130_fd_pr__pfet_01v8 ad=8.7e+11p pd=6.58e+06u as=0p ps=0u w=3e+06u l=300000u
X51 a_n737_n718# a_n800_n815# a_n855_n718# w_n3117_n937# sky130_fd_pr__pfet_01v8 ad=8.7e+11p pd=6.58e+06u as=8.7e+11p ps=6.58e+06u w=3e+06u l=300000u
X52 a_2331_118# a_2268_21# a_2213_118# w_n3117_n937# sky130_fd_pr__pfet_01v8 ad=0p pd=0u as=8.7e+11p ps=6.58e+06u w=3e+06u l=300000u
X53 a_n2743_n718# a_n2806_n815# a_n2861_n718# w_n3117_n937# sky130_fd_pr__pfet_01v8 ad=0p pd=0u as=0p ps=0u w=3e+06u l=300000u
X54 a_2449_n718# a_2386_n815# a_2331_n718# w_n3117_n937# sky130_fd_pr__pfet_01v8 ad=8.7e+11p pd=6.58e+06u as=0p ps=0u w=3e+06u l=300000u
X55 a_561_118# a_498_21# a_443_118# w_n3117_n937# sky130_fd_pr__pfet_01v8 ad=0p pd=0u as=0p ps=0u w=3e+06u l=300000u
X56 a_n1799_n718# a_n1862_n815# a_n1917_n718# w_n3117_n937# sky130_fd_pr__pfet_01v8 ad=0p pd=0u as=0p ps=0u w=3e+06u l=300000u
X57 a_n2743_118# a_n2806_21# a_n2861_118# w_n3117_n937# sky130_fd_pr__pfet_01v8 ad=0p pd=0u as=0p ps=0u w=3e+06u l=300000u
X58 a_n737_118# a_n800_21# a_n855_118# w_n3117_n937# sky130_fd_pr__pfet_01v8 ad=8.7e+11p pd=6.58e+06u as=8.7e+11p ps=6.58e+06u w=3e+06u l=300000u
X59 a_1505_n718# a_1442_n815# a_1387_n718# w_n3117_n937# sky130_fd_pr__pfet_01v8 ad=0p pd=0u as=8.7e+11p ps=6.58e+06u w=3e+06u l=300000u
X60 a_n1799_118# a_n1862_21# a_n1917_118# w_n3117_n937# sky130_fd_pr__pfet_01v8 ad=8.7e+11p pd=6.58e+06u as=0p ps=0u w=3e+06u l=300000u
X61 a_325_118# a_262_21# a_207_118# w_n3117_n937# sky130_fd_pr__pfet_01v8 ad=0p pd=0u as=8.7e+11p ps=6.58e+06u w=3e+06u l=300000u
X62 a_443_n718# a_380_n815# a_325_n718# w_n3117_n937# sky130_fd_pr__pfet_01v8 ad=0p pd=0u as=8.7e+11p ps=6.58e+06u w=3e+06u l=300000u
X63 a_1505_118# a_1442_21# a_1387_118# w_n3117_n937# sky130_fd_pr__pfet_01v8 ad=0p pd=0u as=8.7e+11p ps=6.58e+06u w=3e+06u l=300000u
X64 a_2685_n718# a_2622_n815# a_2567_n718# w_n3117_n937# sky130_fd_pr__pfet_01v8 ad=0p pd=0u as=8.7e+11p ps=6.58e+06u w=3e+06u l=300000u
X65 a_n973_n718# a_n1036_n815# a_n1091_n718# w_n3117_n937# sky130_fd_pr__pfet_01v8 ad=8.7e+11p pd=6.58e+06u as=0p ps=0u w=3e+06u l=300000u
X66 a_n2507_118# a_n2570_21# a_n2625_118# w_n3117_n937# sky130_fd_pr__pfet_01v8 ad=8.7e+11p pd=6.58e+06u as=0p ps=0u w=3e+06u l=300000u
X67 a_n2153_n718# a_n2216_n815# a_n2271_n718# w_n3117_n937# sky130_fd_pr__pfet_01v8 ad=0p pd=0u as=0p ps=0u w=3e+06u l=300000u
X68 a_2213_118# a_2150_21# a_2095_118# w_n3117_n937# sky130_fd_pr__pfet_01v8 ad=0p pd=0u as=8.7e+11p ps=6.58e+06u w=3e+06u l=300000u
X69 a_n855_118# a_n918_21# a_n973_118# w_n3117_n937# sky130_fd_pr__pfet_01v8 ad=0p pd=0u as=0p ps=0u w=3e+06u l=300000u
X70 a_n1209_n718# a_n1272_n815# a_n1327_n718# w_n3117_n937# sky130_fd_pr__pfet_01v8 ad=0p pd=0u as=0p ps=0u w=3e+06u l=300000u
X71 a_n383_n718# a_n446_n815# a_n501_n718# w_n3117_n937# sky130_fd_pr__pfet_01v8 ad=0p pd=0u as=0p ps=0u w=3e+06u l=300000u
X72 a_n2389_n718# a_n2452_n815# a_n2507_n718# w_n3117_n937# sky130_fd_pr__pfet_01v8 ad=0p pd=0u as=0p ps=0u w=3e+06u l=300000u
X73 a_n1681_118# a_n1744_21# a_n1799_118# w_n3117_n937# sky130_fd_pr__pfet_01v8 ad=8.7e+11p pd=6.58e+06u as=0p ps=0u w=3e+06u l=300000u
X74 a_n619_118# a_n682_21# a_n737_118# w_n3117_n937# sky130_fd_pr__pfet_01v8 ad=8.7e+11p pd=6.58e+06u as=0p ps=0u w=3e+06u l=300000u
X75 a_1977_n718# a_1914_n815# a_1859_n718# w_n3117_n937# sky130_fd_pr__pfet_01v8 ad=8.7e+11p pd=6.58e+06u as=0p ps=0u w=3e+06u l=300000u
X76 a_207_118# a_144_21# a_89_118# w_n3117_n937# sky130_fd_pr__pfet_01v8 ad=0p pd=0u as=0p ps=0u w=3e+06u l=300000u
X77 a_2095_n718# a_2032_n815# a_1977_n718# w_n3117_n937# sky130_fd_pr__pfet_01v8 ad=0p pd=0u as=0p ps=0u w=3e+06u l=300000u
X78 a_1387_118# a_1324_21# a_1269_118# w_n3117_n937# sky130_fd_pr__pfet_01v8 ad=0p pd=0u as=8.7e+11p ps=6.58e+06u w=3e+06u l=300000u
X79 a_915_n718# a_852_n815# a_797_n718# w_n3117_n937# sky130_fd_pr__pfet_01v8 ad=0p pd=0u as=0p ps=0u w=3e+06u l=300000u
X80 a_n29_n718# a_n92_n815# a_n147_n718# w_n3117_n937# sky130_fd_pr__pfet_01v8 ad=0p pd=0u as=0p ps=0u w=3e+06u l=300000u
X81 a_n1445_n718# a_n1508_n815# a_n1563_n718# w_n3117_n937# sky130_fd_pr__pfet_01v8 ad=0p pd=0u as=0p ps=0u w=3e+06u l=300000u
X82 a_n619_n718# a_n682_n815# a_n737_n718# w_n3117_n937# sky130_fd_pr__pfet_01v8 ad=0p pd=0u as=0p ps=0u w=3e+06u l=300000u
X83 a_n2389_118# a_n2452_21# a_n2507_118# w_n3117_n937# sky130_fd_pr__pfet_01v8 ad=8.7e+11p pd=6.58e+06u as=0p ps=0u w=3e+06u l=300000u